RDKit          3D

 43 45  0  0  0  0  0  0  0  0999 V2000
   47.4301    5.1232   18.1123 N   0  0  0  0  0  0  0  0  0  0  0  0
   47.0649    4.3442   17.0513 C   0  0  0  0  0  0  0  0  0  0  0  0
   46.3864    3.3446   17.2254 O   0  0  0  0  0  0  0  0  0  0  0  0
   47.4989    4.8651   15.8656 N   0  0  0  0  0  0  0  0  0  0  0  0
   47.2670    4.2079   14.6769 C   0  0  0  0  0  0  0  0  0  0  0  0
   47.5591    3.0380   14.4575 O   0  0  0  0  0  0  0  0  0  0  0  0
   46.8121    5.0679   13.5527 C   0  0  0  0  0  0  0  0  0  0  0  0
   47.5839    6.1478   13.1039 C   0  0  0  0  0  0  0  0  0  0  0  0
   47.1234    6.9413   12.0522 C   0  0  0  0  0  0  0  0  0  0  0  0
   45.8927    6.6636   11.4539 C   0  0  0  0  0  0  0  0  0  0  0  0
   45.1084    5.5936   11.9062 C   0  0  0  0  0  0  0  0  0  0  0  0
   43.7906    5.3189   11.2890 C   0  0  0  0  0  0  0  0  0  0  0  0
   43.8564    5.0206    9.9379 N   0  0  0  0  0  0  0  0  0  0  0  0
   44.5965    4.0287    9.2671 C   0  0  0  0  0  0  0  0  0  0  0  0
   44.4426    2.6968    9.6799 C   0  0  0  0  0  0  0  0  0  0  0  0
   45.1742    1.6644    9.0856 C   0  0  0  0  0  0  0  0  0  0  0  0
   46.0874    1.9508    8.0673 C   0  0  0  0  0  0  0  0  0  0  0  0
   46.2666    3.2690    7.6476 C   0  0  0  0  0  0  0  0  0  0  0  0
   45.5230    4.2978    8.2526 C   0  0  0  0  0  0  0  0  0  0  0  0
   47.2445    3.5812    6.5634 C   0  0  0  0  0  0  0  0  0  0  0  0
   47.9513    2.3664    6.0429 C   0  0  0  0  0  0  0  0  0  0  0  0
   47.7752    1.1486    6.4381 N   0  0  0  0  0  0  0  0  0  0  0  0
   46.8699    0.8549    7.4312 C   0  0  0  0  0  0  0  0  0  0  0  0
   46.6801   -0.2936    7.8156 O   0  0  0  0  0  0  0  0  0  0  0  0
   42.6946    5.4730   12.0620 C   0  0  0  0  0  0  0  0  0  0  0  0
   42.7497    5.8082   13.3943 O   0  0  0  0  0  0  0  0  0  0  0  0
   41.4641    5.3399   11.5198 F   0  0  0  0  0  0  0  0  0  0  0  0
   45.5698    4.8012   12.9649 C   0  0  0  0  0  0  0  0  0  0  0  0
   48.3862    5.4535   18.0969 H   0  0  0  0  0  0  0  0  0  0  0  0
   47.1843    4.6829   18.9933 H   0  0  0  0  0  0  0  0  0  0  0  0
   47.4619    5.8715   15.8574 H   0  0  0  0  0  0  0  0  0  0  0  0
   48.5256    6.4047   13.5825 H   0  0  0  0  0  0  0  0  0  0  0  0
   47.7152    7.7850   11.7046 H   0  0  0  0  0  0  0  0  0  0  0  0
   45.5403    7.2908   10.6375 H   0  0  0  0  0  0  0  0  0  0  0  0
   43.6009    5.7963    9.3303 H   0  0  0  0  0  0  0  0  0  0  0  0
   43.7528    2.4505   10.4849 H   0  0  0  0  0  0  0  0  0  0  0  0
   45.0333    0.6404    9.4265 H   0  0  0  0  0  0  0  0  0  0  0  0
   45.6636    5.3167    7.9021 H   0  0  0  0  0  0  0  0  0  0  0  0
   48.0094    4.2737    6.9316 H   0  0  0  0  0  0  0  0  0  0  0  0
   46.7335    4.0525    5.7166 H   0  0  0  0  0  0  0  0  0  0  0  0
   48.6908    2.5422    5.2431 H   0  0  0  0  0  0  0  0  0  0  0  0
   42.8439    4.9514   13.8459 H   0  0  0  0  0  0  0  0  0  0  0  0
   44.9652    3.9720   13.3299 H   0  0  0  0  0  0  0  0  0  0  0  0
  1  2  1  0
  2  3  2  0
  2  4  1  0
  4  5  1  0
  5  6  2  0
  5  7  1  0
  7  8  2  0
  8  9  1  0
  9 10  2  0
 10 11  1  0
 11 12  1  0
 12 13  1  0
 13 14  1  0
 14 15  2  0
 15 16  1  0
 16 17  2  0
 17 18  1  0
 18 19  2  0
 18 20  1  0
 20 21  1  0
 21 22  2  0
 22 23  1  0
 23 24  2  0
 12 25  2  3
 25 26  1  0
 25 27  1  0
 11 28  2  0
 28  7  1  0
 19 14  1  0
 23 17  1  0
  1 29  1  0
  1 30  1  0
  4 31  1  0
  8 32  1  0
  9 33  1  0
 10 34  1  0
 13 35  1  0
 15 36  1  0
 16 37  1  0
 19 38  1  0
 20 39  1  0
 20 40  1  0
 21 41  1  0
 26 42  1  0
 28 43  1  0
M  END
>  <SMILES>  (1) 
NC(=O)NC(=O)c1cccc(C(Nc2ccc3c(c2)CC=NC3=O)=C(O)F)c1

>  <SELFIE>  (1) 
[F][C][Branch1][C][O][=C][Branch2][Ring1][Ring1][N][C][C][=C][C][C][=N][C][Branch1][Branch2][C][Ring1][=Branch1][=C][C][=Ring1][#Branch2][=O][C][=C][C][=Branch1][=Branch1][=C][C][=C][Ring1][=Branch1][C][=Branch1][#P][=O][N][C][Branch1][C][N][=O][Ring1][#C]

>  <docking_score>  (1) 
-12.734

$$$$

     RDKit          3D

 43 45  0  0  0  0  0  0  0  0999 V2000
   46.6936    3.3551   16.9604 N   0  0  0  0  0  0  0  0  0  0  0  0
   47.4445    3.8266   15.9214 C   0  0  0  0  0  0  0  0  0  0  0  0
   48.3151    3.1303   15.4244 O   0  0  0  0  0  0  0  0  0  0  0  0
   47.0461    5.0736   15.5316 N   0  0  0  0  0  0  0  0  0  0  0  0
   47.7033    5.7431   14.5224 C   0  0  0  0  0  0  0  0  0  0  0  0
   48.9124    5.9401   14.4873 O   0  0  0  0  0  0  0  0  0  0  0  0
   46.8257    6.4237   13.5339 C   0  0  0  0  0  0  0  0  0  0  0  0
   46.9732    7.7873   13.2470 C   0  0  0  0  0  0  0  0  0  0  0  0
   46.1265    8.3977   12.3206 C   0  0  0  0  0  0  0  0  0  0  0  0
   45.1302    7.6525   11.6868 C   0  0  0  0  0  0  0  0  0  0  0  0
   44.9674    6.2913   11.9787 C   0  0  0  0  0  0  0  0  0  0  0  0
   43.8914    5.5101   11.3266 C   0  0  0  0  0  0  0  0  0  0  0  0
   44.0974    5.2942    9.9739 N   0  0  0  0  0  0  0  0  0  0  0  0
   44.7696    4.2451    9.3189 C   0  0  0  0  0  0  0  0  0  0  0  0
   44.5525    2.9357    9.7732 C   0  0  0  0  0  0  0  0  0  0  0  0
   45.2155    1.8487    9.1960 C   0  0  0  0  0  0  0  0  0  0  0  0
   46.1223    2.0562    8.1532 C   0  0  0  0  0  0  0  0  0  0  0  0
   46.3638    3.3504    7.6919 C   0  0  0  0  0  0  0  0  0  0  0  0
   45.6888    4.4347    8.2801 C   0  0  0  0  0  0  0  0  0  0  0  0
   47.3353    3.5782    6.5812 C   0  0  0  0  0  0  0  0  0  0  0  0
   47.9652    2.3126    6.0836 C   0  0  0  0  0  0  0  0  0  0  0  0
   47.7317    1.1178    6.5174 N   0  0  0  0  0  0  0  0  0  0  0  0
   46.8319    0.9019    7.5351 C   0  0  0  0  0  0  0  0  0  0  0  0
   46.5883   -0.2233    7.9563 O   0  0  0  0  0  0  0  0  0  0  0  0
   42.8169    5.1815   12.0748 C   0  0  0  0  0  0  0  0  0  0  0  0
   42.7061    5.4812   13.4121 O   0  0  0  0  0  0  0  0  0  0  0  0
   41.7608    4.5637   11.5016 F   0  0  0  0  0  0  0  0  0  0  0  0
   45.8148    5.6813   12.9122 C   0  0  0  0  0  0  0  0  0  0  0  0
   46.5214    4.0182   17.7049 H   0  0  0  0  0  0  0  0  0  0  0  0
   47.0544    2.4702   17.3028 H   0  0  0  0  0  0  0  0  0  0  0  0
   46.0478    5.1902   15.5962 H   0  0  0  0  0  0  0  0  0  0  0  0
   47.7162    8.3935   13.7589 H   0  0  0  0  0  0  0  0  0  0  0  0
   46.2320    9.4574   12.0994 H   0  0  0  0  0  0  0  0  0  0  0  0
   44.4722    8.1387   10.9693 H   0  0  0  0  0  0  0  0  0  0  0  0
   44.0436    6.1384    9.4076 H   0  0  0  0  0  0  0  0  0  0  0  0
   43.8666    2.7500   10.5975 H   0  0  0  0  0  0  0  0  0  0  0  0
   45.0265    0.8439    9.5692 H   0  0  0  0  0  0  0  0  0  0  0  0
   45.8769    5.4342    7.8975 H   0  0  0  0  0  0  0  0  0  0  0  0
   48.1435    4.2383    6.9149 H   0  0  0  0  0  0  0  0  0  0  0  0
   46.8336    4.0526    5.7305 H   0  0  0  0  0  0  0  0  0  0  0  0
   48.6970    2.4253    5.2655 H   0  0  0  0  0  0  0  0  0  0  0  0
   42.3944    4.6505   13.8115 H   0  0  0  0  0  0  0  0  0  0  0  0
   45.6923    4.6260   13.1526 H   0  0  0  0  0  0  0  0  0  0  0  0
  1  2  1  0
  2  3  2  0
  2  4  1  0
  4  5  1  0
  5  6  2  0
  5  7  1  0
  7  8  2  0
  8  9  1  0
  9 10  2  0
 10 11  1  0
 11 12  1  0
 12 13  1  0
 13 14  1  0
 14 15  2  0
 15 16  1  0
 16 17  2  0
 17 18  1  0
 18 19  2  0
 18 20  1  0
 20 21  1  0
 21 22  2  0
 22 23  1  0
 23 24  2  0
 12 25  2  3
 25 26  1  0
 25 27  1  0
 11 28  2  0
 28  7  1  0
 19 14  1  0
 23 17  1  0
  1 29  1  0
  1 30  1  0
  4 31  1  0
  8 32  1  0
  9 33  1  0
 10 34  1  0
 13 35  1  0
 15 36  1  0
 16 37  1  0
 19 38  1  0
 20 39  1  0
 20 40  1  0
 21 41  1  0
 26 42  1  0
 28 43  1  0
M  END
>  <SMILES>  (2) 
NC(=O)NC(=O)c1cccc(C(Nc2ccc3c(c2)CC=NC3=O)=C(O)F)c1

>  <SELFIE>  (2) 
[F][C][Branch1][C][O][=C][Branch2][Ring1][Ring1][N][C][C][=C][C][C][=N][C][Branch1][Branch2][C][Ring1][=Branch1][=C][C][=Ring1][#Branch2][=O][C][=C][C][=Branch1][=Branch1][=C][C][=C][Ring1][=Branch1][C][=Branch1][#P][=O][N][C][Branch1][C][N][=O][Ring1][#C]

>  <docking_score>  (2) 
-11.140000000000001

$$$$

     RDKit          3D

 43 45  0  0  0  0  0  0  0  0999 V2000
   47.3552    4.8421   18.3121 N   0  0  0  0  0  0  0  0  0  0  0  0
   47.0189    4.1412   17.1889 C   0  0  0  0  0  0  0  0  0  0  0  0
   46.3556    3.1201   17.2752 O   0  0  0  0  0  0  0  0  0  0  0  0
   47.4604    4.7588   16.0535 N   0  0  0  0  0  0  0  0  0  0  0  0
   47.2570    4.1912   14.8145 C   0  0  0  0  0  0  0  0  0  0  0  0
   47.5728    3.0467   14.5106 O   0  0  0  0  0  0  0  0  0  0  0  0
   46.8030    5.1276   13.7526 C   0  0  0  0  0  0  0  0  0  0  0  0
   47.5287    6.2861   13.4447 C   0  0  0  0  0  0  0  0  0  0  0  0
   47.0698    7.1490   12.4486 C   0  0  0  0  0  0  0  0  0  0  0  0
   45.8862    6.8620   11.7657 C   0  0  0  0  0  0  0  0  0  0  0  0
   45.1473    5.7123   12.0773 C   0  0  0  0  0  0  0  0  0  0  0  0
   43.8775    5.4253   11.3715 C   0  0  0  0  0  0  0  0  0  0  0  0
   44.0235    5.2510   10.0051 N   0  0  0  0  0  0  0  0  0  0  0  0
   44.8986    4.4116    9.2901 C   0  0  0  0  0  0  0  0  0  0  0  0
   45.9050    5.0105    8.5177 C   0  0  0  0  0  0  0  0  0  0  0  0
   46.7853    4.2411    7.7513 C   0  0  0  0  0  0  0  0  0  0  0  0
   46.6659    2.8489    7.7363 C   0  0  0  0  0  0  0  0  0  0  0  0
   45.6656    2.2309    8.4869 C   0  0  0  0  0  0  0  0  0  0  0  0
   44.7879    3.0165    9.2549 C   0  0  0  0  0  0  0  0  0  0  0  0
   45.5305    0.7440    8.4706 C   0  0  0  0  0  0  0  0  0  0  0  0
   46.5427    0.0723    7.5928 C   0  0  0  0  0  0  0  0  0  0  0  0
   47.4672    0.6556    6.9033 N   0  0  0  0  0  0  0  0  0  0  0  0
   47.6006    2.0245    6.9211 C   0  0  0  0  0  0  0  0  0  0  0  0
   48.4755    2.5982    6.2821 O   0  0  0  0  0  0  0  0  0  0  0  0
   42.7394    5.4537   12.0971 C   0  0  0  0  0  0  0  0  0  0  0  0
   42.7129    5.6725   13.4542 O   0  0  0  0  0  0  0  0  0  0  0  0
   41.5453    5.3053   11.4826 F   0  0  0  0  0  0  0  0  0  0  0  0
   45.6068    4.8498   13.0806 C   0  0  0  0  0  0  0  0  0  0  0  0
   48.3054    5.1883   18.3369 H   0  0  0  0  0  0  0  0  0  0  0  0
   47.1047    4.3314   19.1528 H   0  0  0  0  0  0  0  0  0  0  0  0
   47.4059    5.7621   16.1219 H   0  0  0  0  0  0  0  0  0  0  0  0
   48.4307    6.5478   13.9920 H   0  0  0  0  0  0  0  0  0  0  0  0
   47.6254    8.0532   12.2105 H   0  0  0  0  0  0  0  0  0  0  0  0
   45.5344    7.5434   10.9937 H   0  0  0  0  0  0  0  0  0  0  0  0
   43.6977    6.0400    9.4505 H   0  0  0  0  0  0  0  0  0  0  0  0
   46.0057    6.0940    8.4966 H   0  0  0  0  0  0  0  0  0  0  0  0
   47.5567    4.7338    7.1624 H   0  0  0  0  0  0  0  0  0  0  0  0
   44.0249    2.5174    9.8461 H   0  0  0  0  0  0  0  0  0  0  0  0
   44.5379    0.4583    8.1055 H   0  0  0  0  0  0  0  0  0  0  0  0
   45.6534    0.3414    9.4821 H   0  0  0  0  0  0  0  0  0  0  0  0
   46.4832   -1.0282    7.5399 H   0  0  0  0  0  0  0  0  0  0  0  0
   41.7639    5.7260   13.6626 H   0  0  0  0  0  0  0  0  0  0  0  0
   45.0367    3.9577   13.3366 H   0  0  0  0  0  0  0  0  0  0  0  0
  1  2  1  0
  2  3  2  0
  2  4  1  0
  4  5  1  0
  5  6  2  0
  5  7  1  0
  7  8  2  0
  8  9  1  0
  9 10  2  0
 10 11  1  0
 11 12  1  0
 12 13  1  0
 13 14  1  0
 14 15  2  0
 15 16  1  0
 16 17  2  0
 17 18  1  0
 18 19  2  0
 18 20  1  0
 20 21  1  0
 21 22  2  0
 22 23  1  0
 23 24  2  0
 12 25  2  3
 25 26  1  0
 25 27  1  0
 11 28  2  0
 28  7  1  0
 19 14  1  0
 23 17  1  0
  1 29  1  0
  1 30  1  0
  4 31  1  0
  8 32  1  0
  9 33  1  0
 10 34  1  0
 13 35  1  0
 15 36  1  0
 16 37  1  0
 19 38  1  0
 20 39  1  0
 20 40  1  0
 21 41  1  0
 26 42  1  0
 28 43  1  0
M  END
>  <SMILES>  (3) 
NC(=O)NC(=O)c1cccc(C(Nc2ccc3c(c2)CC=NC3=O)=C(O)F)c1

>  <SELFIE>  (3) 
[F][C][Branch1][C][O][=C][Branch2][Ring1][Ring1][N][C][C][=C][C][C][=N][C][Branch1][Branch2][C][Ring1][=Branch1][=C][C][=Ring1][#Branch2][=O][C][=C][C][=Branch1][=Branch1][=C][C][=C][Ring1][=Branch1][C][=Branch1][#P][=O][N][C][Branch1][C][N][=O][Ring1][#C]

>  <docking_score>  (3) 
-11.077999999999999

$$$$
