RDKit          3D

 43 45  0  0  0  0  0  0  0  0999 V2000
   46.9322    5.0664   18.1922 N   0  0  0  0  0  0  0  0  0  0  0  0
   46.9611    4.1952   17.1392 C   0  0  0  0  0  0  0  0  0  0  0  0
   46.6557    3.0248   17.3040 O   0  0  0  0  0  0  0  0  0  0  0  0
   47.3256    4.8235   15.9796 N   0  0  0  0  0  0  0  0  0  0  0  0
   47.2084    4.1941   14.7534 C   0  0  0  0  0  0  0  0  0  0  0  0
   47.4940    3.0308   14.5031 O   0  0  0  0  0  0  0  0  0  0  0  0
   46.7347    5.0698   13.6523 C   0  0  0  0  0  0  0  0  0  0  0  0
   47.6294    5.9905   13.1019 C   0  0  0  0  0  0  0  0  0  0  0  0
   47.2619    6.7211   11.9730 C   0  0  0  0  0  0  0  0  0  0  0  0
   46.0105    6.5161   11.3840 C   0  0  0  0  0  0  0  0  0  0  0  0
   45.0900    5.6177   11.9453 C   0  0  0  0  0  0  0  0  0  0  0  0
   43.7764    5.3395   11.3041 C   0  0  0  0  0  0  0  0  0  0  0  0
   42.6658    5.3363   12.0683 C   0  0  0  0  0  0  0  0  0  0  0  0
   42.6272    5.6210   13.4072 O   0  0  0  0  0  0  0  0  0  0  0  0
   43.7295    4.9585    9.9668 N   0  0  0  0  0  0  0  0  0  0  0  0
   44.4422    3.9825    9.2468 C   0  0  0  0  0  0  0  0  0  0  0  0
   44.2601    2.6366    9.5962 C   0  0  0  0  0  0  0  0  0  0  0  0
   45.0338    1.6292    9.0158 C   0  0  0  0  0  0  0  0  0  0  0  0
   46.0104    1.9538    8.0689 C   0  0  0  0  0  0  0  0  0  0  0  0
   46.1948    3.2822    7.6877 C   0  0  0  0  0  0  0  0  0  0  0  0
   45.4049    4.2855    8.2760 C   0  0  0  0  0  0  0  0  0  0  0  0
   47.2429    3.6311    6.6811 C   0  0  0  0  0  0  0  0  0  0  0  0
   47.9429    2.4279    6.1240 C   0  0  0  0  0  0  0  0  0  0  0  0
   47.7667    1.2009    6.4914 N   0  0  0  0  0  0  0  0  0  0  0  0
   46.8755    0.8903    7.4912 C   0  0  0  0  0  0  0  0  0  0  0  0
   46.7728   -0.2422    7.9486 O   0  0  0  0  0  0  0  0  0  0  0  0
   45.4515    4.9293   13.1137 C   0  0  0  0  0  0  0  0  0  0  0  0
   46.7467    4.5913   19.0718 H   0  0  0  0  0  0  0  0  0  0  0  0
   47.7069    5.7136   18.2683 H   0  0  0  0  0  0  0  0  0  0  0  0
   47.0617    5.7952   16.0105 H   0  0  0  0  0  0  0  0  0  0  0  0
   48.6160    6.1243   13.5413 H   0  0  0  0  0  0  0  0  0  0  0  0
   47.9557    7.4374   11.5390 H   0  0  0  0  0  0  0  0  0  0  0  0
   45.7503    7.0719   10.4856 H   0  0  0  0  0  0  0  0  0  0  0  0
   41.6870    5.0890   11.6773 H   0  0  0  0  0  0  0  0  0  0  0  0
   42.8577    6.5577   13.5328 H   0  0  0  0  0  0  0  0  0  0  0  0
   43.0633    5.4801    9.4040 H   0  0  0  0  0  0  0  0  0  0  0  0
   43.5272    2.3608   10.3527 H   0  0  0  0  0  0  0  0  0  0  0  0
   44.8797    0.5937    9.3146 H   0  0  0  0  0  0  0  0  0  0  0  0
   45.5465    5.3179    7.9617 H   0  0  0  0  0  0  0  0  0  0  0  0
   46.7939    4.1664    5.8379 H   0  0  0  0  0  0  0  0  0  0  0  0
   48.0034    4.2771    7.1332 H   0  0  0  0  0  0  0  0  0  0  0  0
   48.6824    2.6229    5.3294 H   0  0  0  0  0  0  0  0  0  0  0  0
   44.7307    4.2608   13.5772 H   0  0  0  0  0  0  0  0  0  0  0  0
  1  2  1  0
  2  3  2  0
  2  4  1  0
  4  5  1  0
  5  6  2  0
  5  7  1  0
  7  8  2  0
  8  9  1  0
  9 10  2  0
 10 11  1  0
 11 12  1  0
 12 13  2  3
 13 14  1  0
 12 15  1  0
 15 16  1  0
 16 17  2  0
 17 18  1  0
 18 19  2  0
 19 20  1  0
 20 21  2  0
 20 22  1  0
 22 23  1  0
 23 24  2  0
 24 25  1  0
 25 26  2  0
 11 27  2  0
 27  7  1  0
 21 16  1  0
 25 19  1  0
  1 28  1  0
  1 29  1  0
  4 30  1  0
  8 31  1  0
  9 32  1  0
 10 33  1  0
 13 34  1  0
 14 35  1  0
 15 36  1  0
 17 37  1  0
 18 38  1  0
 21 39  1  0
 22 40  1  0
 22 41  1  0
 23 42  1  0
 27 43  1  0
M  END
>  <SMILES>  (1) 
NC(=O)NC(=O)c1cccc(C(=CO)Nc2ccc3c(c2)CC=NC3=O)c1

>  <SELFIE>  (1) 
[C][=C][Branch2][Ring2][#S-1][C][=C][Branch2][Ring1][=Branch2][C][Branch2][Ring1][Ring1][N][C][=C][C][=C][C][=Branch1][Ring2][=C][Ring1][=Branch1][C][C][=N][C][Ring1][#Branch1][=O][=C][O][C][=C][Ring2][Ring1][Branch1][C][=Branch1][C][=O][N][C][Branch1][C][N][=O]

>  <docking_score>  (1) 
-13.07

$$$$

     RDKit          3D

 43 45  0  0  0  0  0  0  0  0999 V2000
   47.6494    9.3127   16.2643 N   0  0  0  0  0  0  0  0  0  0  0  0
   48.1765    8.9491   15.0565 C   0  0  0  0  0  0  0  0  0  0  0  0
   49.3485    9.1803   14.8052 O   0  0  0  0  0  0  0  0  0  0  0  0
   47.2493    8.3129   14.2769 N   0  0  0  0  0  0  0  0  0  0  0  0
   47.6140    7.6635   13.1113 C   0  0  0  0  0  0  0  0  0  0  0  0
   48.4060    8.0683   12.2707 O   0  0  0  0  0  0  0  0  0  0  0  0
   46.9111    6.3776   12.8746 C   0  0  0  0  0  0  0  0  0  0  0  0
   47.3648    5.2380   13.5430 C   0  0  0  0  0  0  0  0  0  0  0  0
   46.6383    4.0514   13.4569 C   0  0  0  0  0  0  0  0  0  0  0  0
   45.4499    4.0105   12.7213 C   0  0  0  0  0  0  0  0  0  0  0  0
   44.9997    5.1391   12.0191 C   0  0  0  0  0  0  0  0  0  0  0  0
   43.7095    5.1372   11.2780 C   0  0  0  0  0  0  0  0  0  0  0  0
   42.5652    5.3402   11.9611 C   0  0  0  0  0  0  0  0  0  0  0  0
   42.4817    5.6037   13.3022 O   0  0  0  0  0  0  0  0  0  0  0  0
   43.6903    4.7963    9.9292 N   0  0  0  0  0  0  0  0  0  0  0  0
   44.4313    3.8550    9.1918 C   0  0  0  0  0  0  0  0  0  0  0  0
   44.2981    2.4992    9.5245 C   0  0  0  0  0  0  0  0  0  0  0  0
   45.1020    1.5268    8.9258 C   0  0  0  0  0  0  0  0  0  0  0  0
   46.0604    1.8973    7.9771 C   0  0  0  0  0  0  0  0  0  0  0  0
   46.1963    3.2361    7.6124 C   0  0  0  0  0  0  0  0  0  0  0  0
   45.3763    4.2037    8.2190 C   0  0  0  0  0  0  0  0  0  0  0  0
   47.2248    3.6341    6.6038 C   0  0  0  0  0  0  0  0  0  0  0  0
   47.9621    2.4631    6.0264 C   0  0  0  0  0  0  0  0  0  0  0  0
   47.8308    1.2261    6.3786 N   0  0  0  0  0  0  0  0  0  0  0  0
   46.9576    0.8718    7.3798 C   0  0  0  0  0  0  0  0  0  0  0  0
   46.8972   -0.2694    7.8229 O   0  0  0  0  0  0  0  0  0  0  0  0
   45.7697    6.3115   12.0691 C   0  0  0  0  0  0  0  0  0  0  0  0
   48.3057    9.8612   16.8142 H   0  0  0  0  0  0  0  0  0  0  0  0
   46.7269    9.7293   16.2509 H   0  0  0  0  0  0  0  0  0  0  0  0
   46.5678    7.8468   14.8540 H   0  0  0  0  0  0  0  0  0  0  0  0
   48.2717    5.2804   14.1430 H   0  0  0  0  0  0  0  0  0  0  0  0
   46.9857    3.1618   13.9774 H   0  0  0  0  0  0  0  0  0  0  0  0
   44.8785    3.0852   12.6888 H   0  0  0  0  0  0  0  0  0  0  0  0
   41.5893    5.2982   11.4941 H   0  0  0  0  0  0  0  0  0  0  0  0
   43.1218    5.0402   13.7705 H   0  0  0  0  0  0  0  0  0  0  0  0
   43.0239    5.3232    9.3716 H   0  0  0  0  0  0  0  0  0  0  0  0
   43.5803    2.1884   10.2819 H   0  0  0  0  0  0  0  0  0  0  0  0
   44.9858    0.4827    9.2118 H   0  0  0  0  0  0  0  0  0  0  0  0
   45.4801    5.2444    7.9175 H   0  0  0  0  0  0  0  0  0  0  0  0
   46.7519    4.1644    5.7708 H   0  0  0  0  0  0  0  0  0  0  0  0
   47.9657    4.3000    7.0596 H   0  0  0  0  0  0  0  0  0  0  0  0
   48.6889    2.6939    5.2298 H   0  0  0  0  0  0  0  0  0  0  0  0
   45.4492    7.1784   11.4972 H   0  0  0  0  0  0  0  0  0  0  0  0
  1  2  1  0
  2  3  2  0
  2  4  1  0
  4  5  1  0
  5  6  2  0
  5  7  1  0
  7  8  2  0
  8  9  1  0
  9 10  2  0
 10 11  1  0
 11 12  1  0
 12 13  2  3
 13 14  1  0
 12 15  1  0
 15 16  1  0
 16 17  2  0
 17 18  1  0
 18 19  2  0
 19 20  1  0
 20 21  2  0
 20 22  1  0
 22 23  1  0
 23 24  2  0
 24 25  1  0
 25 26  2  0
 11 27  2  0
 27  7  1  0
 21 16  1  0
 25 19  1  0
  1 28  1  0
  1 29  1  0
  4 30  1  0
  8 31  1  0
  9 32  1  0
 10 33  1  0
 13 34  1  0
 14 35  1  0
 15 36  1  0
 17 37  1  0
 18 38  1  0
 21 39  1  0
 22 40  1  0
 22 41  1  0
 23 42  1  0
 27 43  1  0
M  END
>  <SMILES>  (2) 
NC(=O)NC(=O)c1cccc(C(=CO)Nc2ccc3c(c2)CC=NC3=O)c1

>  <SELFIE>  (2) 
[C][=C][Branch2][Ring2][#S-1][C][=C][Branch2][Ring1][=Branch2][C][Branch2][Ring1][Ring1][N][C][=C][C][=C][C][=Branch1][Ring2][=C][Ring1][=Branch1][C][C][=N][C][Ring1][#Branch1][=O][=C][O][C][=C][Ring2][Ring1][Branch1][C][=Branch1][C][=O][N][C][Branch1][C][N][=O]

>  <docking_score>  (2) 
-11.550000000000001

$$$$

     RDKit          3D

 43 45  0  0  0  0  0  0  0  0999 V2000
   46.9348    5.0538   18.3208 N   0  0  0  0  0  0  0  0  0  0  0  0
   46.9669    4.2036   17.2509 C   0  0  0  0  0  0  0  0  0  0  0  0
   46.6718    3.0278   17.3938 O   0  0  0  0  0  0  0  0  0  0  0  0
   47.3217    4.8575   16.1024 N   0  0  0  0  0  0  0  0  0  0  0  0
   47.2050    4.2513   14.8646 C   0  0  0  0  0  0  0  0  0  0  0  0
   47.4993    3.0955   14.5905 O   0  0  0  0  0  0  0  0  0  0  0  0
   46.7198    5.1443   13.7826 C   0  0  0  0  0  0  0  0  0  0  0  0
   47.5832    6.1273   13.2933 C   0  0  0  0  0  0  0  0  0  0  0  0
   47.2119    6.8818   12.1814 C   0  0  0  0  0  0  0  0  0  0  0  0
   45.9892    6.6393   11.5481 C   0  0  0  0  0  0  0  0  0  0  0  0
   45.0987    5.6768   12.0483 C   0  0  0  0  0  0  0  0  0  0  0  0
   43.8189    5.3602   11.3584 C   0  0  0  0  0  0  0  0  0  0  0  0
   42.6749    5.3676   12.0715 C   0  0  0  0  0  0  0  0  0  0  0  0
   42.5721    5.6960   13.3969 O   0  0  0  0  0  0  0  0  0  0  0  0
   43.8373    4.9345   10.0340 N   0  0  0  0  0  0  0  0  0  0  0  0
   44.7935    4.2126    9.2968 C   0  0  0  0  0  0  0  0  0  0  0  0
   45.6479    4.9251    8.4430 C   0  0  0  0  0  0  0  0  0  0  0  0
   46.5271    4.2620    7.5841 C   0  0  0  0  0  0  0  0  0  0  0  0
   46.5664    2.8642    7.5646 C   0  0  0  0  0  0  0  0  0  0  0  0
   45.7434    2.1335    8.4205 C   0  0  0  0  0  0  0  0  0  0  0  0
   44.8672    2.8142    9.2840 C   0  0  0  0  0  0  0  0  0  0  0  0
   45.7794    0.6397    8.3955 C   0  0  0  0  0  0  0  0  0  0  0  0
   46.8128    0.0948    7.4556 C   0  0  0  0  0  0  0  0  0  0  0  0
   47.5657    0.7840    6.6621 N   0  0  0  0  0  0  0  0  0  0  0  0
   47.4599    2.1539    6.6104 C   0  0  0  0  0  0  0  0  0  0  0  0
   48.0671    2.8271    5.7856 O   0  0  0  0  0  0  0  0  0  0  0  0
   45.4608    4.9628   13.2011 C   0  0  0  0  0  0  0  0  0  0  0  0
   46.7567    4.5600   19.1916 H   0  0  0  0  0  0  0  0  0  0  0  0
   47.7044    5.7058   18.4067 H   0  0  0  0  0  0  0  0  0  0  0  0
   47.0499    5.8262   16.1534 H   0  0  0  0  0  0  0  0  0  0  0  0
   48.5492    6.2918   13.7666 H   0  0  0  0  0  0  0  0  0  0  0  0
   47.8815    7.6467   11.7948 H   0  0  0  0  0  0  0  0  0  0  0  0
   45.7273    7.2157   10.6633 H   0  0  0  0  0  0  0  0  0  0  0  0
   41.7178    5.0947   11.6454 H   0  0  0  0  0  0  0  0  0  0  0  0
   41.8756    6.3677   13.4979 H   0  0  0  0  0  0  0  0  0  0  0  0
   43.0139    5.1932    9.4976 H   0  0  0  0  0  0  0  0  0  0  0  0
   45.6153    6.0131    8.4176 H   0  0  0  0  0  0  0  0  0  0  0  0
   47.1708    4.8398    6.9230 H   0  0  0  0  0  0  0  0  0  0  0  0
   44.2388    2.2356    9.9584 H   0  0  0  0  0  0  0  0  0  0  0  0
   46.0085    0.2504    9.3930 H   0  0  0  0  0  0  0  0  0  0  0  0
   44.8071    0.2416    8.0856 H   0  0  0  0  0  0  0  0  0  0  0  0
   46.9269   -1.0020    7.4449 H   0  0  0  0  0  0  0  0  0  0  0  0
   44.7610    4.2431   13.6180 H   0  0  0  0  0  0  0  0  0  0  0  0
  1  2  1  0
  2  3  2  0
  2  4  1  0
  4  5  1  0
  5  6  2  0
  5  7  1  0
  7  8  2  0
  8  9  1  0
  9 10  2  0
 10 11  1  0
 11 12  1  0
 12 13  2  3
 13 14  1  0
 12 15  1  0
 15 16  1  0
 16 17  2  0
 17 18  1  0
 18 19  2  0
 19 20  1  0
 20 21  2  0
 20 22  1  0
 22 23  1  0
 23 24  2  0
 24 25  1  0
 25 26  2  0
 11 27  2  0
 27  7  1  0
 21 16  1  0
 25 19  1  0
  1 28  1  0
  1 29  1  0
  4 30  1  0
  8 31  1  0
  9 32  1  0
 10 33  1  0
 13 34  1  0
 14 35  1  0
 15 36  1  0
 17 37  1  0
 18 38  1  0
 21 39  1  0
 22 40  1  0
 22 41  1  0
 23 42  1  0
 27 43  1  0
M  END
>  <SMILES>  (3) 
NC(=O)NC(=O)c1cccc(C(=CO)Nc2ccc3c(c2)CC=NC3=O)c1

>  <SELFIE>  (3) 
[C][=C][Branch2][Ring2][#S-1][C][=C][Branch2][Ring1][=Branch2][C][Branch2][Ring1][Ring1][N][C][=C][C][=C][C][=Branch1][Ring2][=C][Ring1][=Branch1][C][C][=N][C][Ring1][#Branch1][=O][=C][O][C][=C][Ring2][Ring1][Branch1][C][=Branch1][C][=O][N][C][Branch1][C][N][=O]

>  <docking_score>  (3) 
-11.199

$$$$
