mara_best1_out.pdbqt
  PyMOL3.0          3D                             0

 77 79  0  0  0  0  0  0  0  0999 V2000
   43.9684    4.3185    7.9696 H   0  0  0  0  0  0  0  0  0  0  0  0
   53.6232    6.7575   17.3856 H   0  0  0  0  0  0  0  0  0  0  0  0
   51.1723    2.1859   18.2521 H   0  0  0  0  0  0  0  0  0  0  0  0
   47.3806    6.3498   19.1021 H   0  0  0  0  0  0  0  0  0  0  0  0
   49.8044    9.9034   19.0972 H   0  0  0  0  0  0  0  0  0  0  0  0
   48.1176    8.4515   20.2003 H   0  0  0  0  0  0  0  0  0  0  0  0
   45.3068    1.0588    9.0364 H   0  0  0  0  0  0  0  0  0  0  0  0
   48.3418    1.6911   16.2077 H   0  0  0  0  0  0  0  0  0  0  0  0
   51.1419    2.9462   16.6055 H   0  0  0  0  0  0  0  0  0  0  0  0
   52.6709    4.6506   16.4831 H   0  0  0  0  0  0  0  0  0  0  0  0
   52.9005    7.5996   19.6070 H   0  0  0  0  0  0  0  0  0  0  0  0
   45.3304    5.3476    9.5525 H   0  0  0  0  0  0  0  0  0  0  0  0
   42.8305    4.5655   10.3405 H   0  0  0  0  0  0  0  0  0  0  0  0
   48.5271    1.1303    6.1838 H   0  0  0  0  0  0  0  0  0  0  0  0
   49.3979    2.9850   15.5106 H   0  0  0  0  0  0  0  0  0  0  0  0
   46.1851    4.2334   11.8283 H   0  0  0  0  0  0  0  0  0  0  0  0
   50.2666    4.2250   20.0331 H   0  0  0  0  0  0  0  0  0  0  0  0
   46.0779    4.6240    6.7433 H   0  0  0  0  0  0  0  0  0  0  0  0
   47.1982   -0.0772    7.9015 H   0  0  0  0  0  0  0  0  0  0  0  0
   50.7493    9.2603   16.8935 H   0  0  0  0  0  0  0  0  0  0  0  0
   43.9155    5.6697   11.2636 H   0  0  0  0  0  0  0  0  0  0  0  0
   50.2248    7.6477   13.3587 H   0  0  0  0  0  0  0  0  0  0  0  0
   45.6757    3.8010   10.3907 H   0  0  0  0  0  0  0  0  0  0  0  0
   51.2230    6.3319   20.9307 H   0  0  0  0  0  0  0  0  0  0  0  0
   47.3581    2.8450   13.1064 H   0  0  0  0  0  0  0  0  0  0  0  0
   49.5614    8.8647   14.5322 H   0  0  0  0  0  0  0  0  0  0  0  0
   46.9472    5.8529   14.0986 H   0  0  0  0  0  0  0  0  0  0  0  0
   48.9911    2.1433   18.2576 H   0  0  0  0  0  0  0  0  0  0  0  0
   47.4863    8.2226   14.1854 H   0  0  0  0  0  0  0  0  0  0  0  0
   48.3230    5.6992   16.9019 H   0  0  0  0  0  0  0  0  0  0  0  0
   47.9689    3.4822    5.6123 H   0  0  0  0  0  0  0  0  0  0  0  0
   43.6962    2.8698    8.9931 H   0  0  0  0  0  0  0  0  0  0  0  0
   49.9822    5.9755   15.2542 H   0  0  0  0  0  0  0  0  0  0  0  0
   47.9364    6.4853   14.3672 H   0  0  0  0  0  0  0  0  0  0  0  0
   48.9212    3.9464   17.9999 H   0  0  0  0  0  0  0  0  0  0  0  0
   45.3288    6.3651   13.5739 H   0  0  0  0  0  0  0  0  0  0  0  0
   45.9943    2.7808   14.2757 H   0  0  0  0  0  0  0  0  0  0  0  0
   51.2440    7.2594   15.4444 H   0  0  0  0  0  0  0  0  0  0  0  0
   45.9135    4.4117   12.8687 C   0  0  0  0  0  0  0  0  0  0  0  0
   46.2415    5.8538   13.2679 C   0  0  0  0  0  0  0  0  0  0  0  0
   46.8196    6.5325   12.1443 O   0  0  0  0  0  0  0  0  0  0  0  0
   47.9733    7.2058   12.3834 C   0  0  0  0  0  0  0  0  0  0  0  0
   48.7607    7.5806   11.5262 O   0  0  0  0  0  0  0  0  0  0  0  0
   48.1582    7.4266   13.8644 C   0  0  0  0  0  0  0  0  0  0  0  0
   49.5915    7.8180   14.2294 C   0  0  0  0  0  0  0  0  0  0  0  0
   50.1776    7.0364   15.4108 C   0  0  0  0  0  0  0  0  0  0  0  0
   49.5994    7.4372   16.7445 C   0  0  0  0  0  0  0  0  0  0  0  0
   48.6493    6.6232   17.3793 C   0  0  0  0  0  0  0  0  0  0  0  0
   48.1193    6.9878   18.6169 C   0  0  0  0  0  0  0  0  0  0  0  0
   48.5332    8.1668   19.2337 C   0  0  0  0  0  0  0  0  0  0  0  0
   49.4791    8.9821   18.6139 C   0  0  0  0  0  0  0  0  0  0  0  0
   50.0102    8.6194   17.3743 C   0  0  0  0  0  0  0  0  0  0  0  0
   46.6999    3.4260   13.7524 C   0  0  0  0  0  0  0  0  0  0  0  0
   47.5154    4.1071   14.7217 O   0  0  0  0  0  0  0  0  0  0  0  0
   47.4413    3.6031   15.9881 C   0  0  0  0  0  0  0  0  0  0  0  0
   46.5277    3.8260   16.7708 O   0  0  0  0  0  0  0  0  0  0  0  0
   48.6478    2.7359   16.2612 C   0  0  0  0  0  0  0  0  0  0  0  0
   49.2819    2.9863   17.6308 C   0  0  0  0  0  0  0  0  0  0  0  0
   50.8171    3.0175   17.6435 C   0  0  0  0  0  0  0  0  0  0  0  0
   51.4013    4.2945   18.1962 C   0  0  0  0  0  0  0  0  0  0  0  0
   51.0022    4.7781   19.4491 C   0  0  0  0  0  0  0  0  0  0  0  0
   51.5395    5.9628   19.9552 C   0  0  0  0  0  0  0  0  0  0  0  0
   52.4813    6.6740   19.2124 C   0  0  0  0  0  0  0  0  0  0  0  0
   52.8866    6.2014   17.9655 C   0  0  0  0  0  0  0  0  0  0  0  0
   52.3502    5.0166   17.4584 C   0  0  0  0  0  0  0  0  0  0  0  0
   44.4947    4.2186   13.0779 O   0  0  0  0  0  0  0  0  0  0  0  0
   43.7873    3.7062   12.0351 C   0  0  0  0  0  0  0  0  0  0  0  0
   43.2675    2.5987   12.0065 O   0  0  0  0  0  0  0  0  0  0  0  0
   43.7797    4.6634   10.8673 C   0  0  0  0  0  0  0  0  0  0  0  0
   44.9155    4.3959    9.8845 C   0  0  0  0  0  0  0  0  0  0  0  0
   44.4224    3.6142    8.6667 C   0  0  0  0  0  0  0  0  0  0  0  0
   45.5572    2.9163    7.9612 C   0  0  0  0  0  0  0  0  0  0  0  0
   45.8863    1.5926    8.2832 C   0  0  0  0  0  0  0  0  0  0  0  0
   46.9507    0.9532    7.6463 C   0  0  0  0  0  0  0  0  0  0  0  0
   47.6980    1.6311    6.6837 C   0  0  0  0  0  0  0  0  0  0  0  0
   47.3829    2.9504    6.3619 C   0  0  0  0  0  0  0  0  0  0  0  0
   46.3184    3.5918    6.9977 C   0  0  0  0  0  0  0  0  0  0  0  0
 16 39  1  0  0  0  0
 39 40  1  0  0  0  0
 39 53  1  0  0  0  0
 39 66  1  0  0  0  0
 27 40  1  0  0  0  0
 36 40  1  0  0  0  0
 40 41  1  0  0  0  0
 41 42  1  0  0  0  0
 42 44  1  0  0  0  0
 42 43  2  0  0  0  0
 29 44  1  0  0  0  0
 34 44  1  0  0  0  0
 44 45  1  0  0  0  0
 22 45  1  0  0  0  0
 26 45  1  0  0  0  0
 45 46  1  0  0  0  0
 33 46  1  0  0  0  0
 38 46  1  0  0  0  0
 46 47  1  0  0  0  0
 47 48  1  0  0  0  0
 47 52  2  0  0  0  0
 30 48  1  0  0  0  0
 48 49  2  0  0  0  0
  4 49  1  0  0  0  0
 49 50  1  0  0  0  0
  6 50  1  0  0  0  0
  5 51  1  0  0  0  0
 50 51  2  0  0  0  0
 20 52  1  0  0  0  0
 51 52  1  0  0  0  0
 25 53  1  0  0  0  0
 37 53  1  0  0  0  0
 53 54  1  0  0  0  0
 54 55  1  0  0  0  0
 55 56  2  0  0  0  0
 55 57  1  0  0  0  0
  8 57  1  0  0  0  0
 15 57  1  0  0  0  0
 57 58  1  0  0  0  0
 28 58  1  0  0  0  0
 35 58  1  0  0  0  0
  3 59  1  0  0  0  0
  9 59  1  0  0  0  0
 58 59  1  0  0  0  0
 59 60  1  0  0  0  0
 60 61  1  0  0  0  0
 17 61  1  0  0  0  0
 61 62  2  0  0  0  0
 24 62  1  0  0  0  0
 11 63  1  0  0  0  0
 62 63  1  0  0  0  0
  2 64  1  0  0  0  0
 63 64  2  0  0  0  0
 10 65  1  0  0  0  0
 60 65  2  0  0  0  0
 64 65  1  0  0  0  0
 66 67  1  0  0  0  0
 67 68  2  0  0  0  0
 13 69  1  0  0  0  0
 21 69  1  0  0  0  0
 67 69  1  0  0  0  0
 12 70  1  0  0  0  0
 23 70  1  0  0  0  0
 69 70  1  0  0  0  0
  1 71  1  0  0  0  0
 32 71  1  0  0  0  0
 70 71  1  0  0  0  0
 71 72  1  0  0  0  0
 72 73  1  0  0  0  0
  7 73  1  0  0  0  0
 19 74  1  0  0  0  0
 73 74  2  0  0  0  0
 14 75  1  0  0  0  0
 74 75  1  0  0  0  0
 31 76  1  0  0  0  0
 75 76  2  0  0  0  0
 76 77  1  0  0  0  0
 18 77  1  0  0  0  0
 72 77  2  0  0  0  0
M  END
$$$$
