mara_best1_out.pdbqt
 OpenBabel01222521213D

 39 41  0  0  1  0  0  0  0  0999 V2000
   45.9135    4.4117   12.8687 C   0  0  1  0  0  3  0  0  0  0  0  0
   46.2415    5.8538   13.2679 C   0  0  0  0  0  2  0  0  0  0  0  0
   46.8196    6.5325   12.1443 O   0  0  0  0  0  0  0  0  0  0  0  0
   47.9733    7.2058   12.3834 C   0  0  0  0  0  0  0  0  0  0  0  0
   48.7607    7.5806   11.5262 O   0  0  0  0  0  0  0  0  0  0  0  0
   48.1582    7.4266   13.8644 C   0  0  0  0  0  2  0  0  0  0  0  0
   49.5915    7.8180   14.2294 C   0  0  0  0  0  2  0  0  0  0  0  0
   50.1776    7.0364   15.4108 C   0  0  0  0  0  2  0  0  0  0  0  0
   49.5994    7.4372   16.7445 C   0  0  0  0  0  0  0  0  0  0  0  0
   48.6493    6.6232   17.3793 C   0  0  0  0  0  3  0  0  0  0  0  0
   48.1193    6.9878   18.6169 C   0  0  0  0  0  3  0  0  0  0  0  0
   48.5332    8.1668   19.2337 C   0  0  0  0  0  3  0  0  0  0  0  0
   49.4791    8.9821   18.6139 C   0  0  0  0  0  3  0  0  0  0  0  0
   50.0102    8.6194   17.3743 C   0  0  0  0  0  3  0  0  0  0  0  0
   46.6999    3.4260   13.7524 C   0  0  0  0  0  2  0  0  0  0  0  0
   47.5154    4.1071   14.7217 O   0  0  0  0  0  0  0  0  0  0  0  0
   47.4413    3.6031   15.9881 C   0  0  0  0  0  0  0  0  0  0  0  0
   46.5277    3.8260   16.7708 O   0  0  0  0  0  0  0  0  0  0  0  0
   48.6478    2.7359   16.2612 C   0  0  0  0  0  2  0  0  0  0  0  0
   49.2819    2.9863   17.6308 C   0  0  0  0  0  2  0  0  0  0  0  0
   50.8171    3.0175   17.6435 C   0  0  0  0  0  2  0  0  0  0  0  0
   51.4013    4.2945   18.1962 C   0  0  0  0  0  0  0  0  0  0  0  0
   51.0022    4.7781   19.4491 C   0  0  0  0  0  3  0  0  0  0  0  0
   51.5395    5.9628   19.9552 C   0  0  0  0  0  3  0  0  0  0  0  0
   52.4813    6.6740   19.2124 C   0  0  0  0  0  3  0  0  0  0  0  0
   52.8866    6.2014   17.9655 C   0  0  0  0  0  3  0  0  0  0  0  0
   52.3502    5.0166   17.4584 C   0  0  0  0  0  3  0  0  0  0  0  0
   44.4947    4.2186   13.0779 O   0  0  0  0  0  0  0  0  0  0  0  0
   43.7873    3.7062   12.0351 C   0  0  0  0  0  0  0  0  0  0  0  0
   43.2675    2.5987   12.0065 O   0  0  0  0  0  0  0  0  0  0  0  0
   43.7797    4.6634   10.8673 C   0  0  0  0  0  2  0  0  0  0  0  0
   44.9155    4.3959    9.8845 C   0  0  0  0  0  2  0  0  0  0  0  0
   44.4224    3.6142    8.6667 C   0  0  0  0  0  2  0  0  0  0  0  0
   45.5572    2.9163    7.9612 C   0  0  0  0  0  0  0  0  0  0  0  0
   45.8863    1.5926    8.2832 C   0  0  0  0  0  3  0  0  0  0  0  0
   46.9507    0.9532    7.6463 C   0  0  0  0  0  3  0  0  0  0  0  0
   47.6980    1.6311    6.6837 C   0  0  0  0  0  3  0  0  0  0  0  0
   47.3829    2.9504    6.3619 C   0  0  0  0  0  3  0  0  0  0  0  0
   46.3184    3.5918    6.9977 C   0  0  0  0  0  3  0  0  0  0  0  0
  1 28  1  0  0  0  0
  1  2  1  1  0  0  0
  1 15  1  0  0  0  0
  3  4  1  0  0  0  0
  3  2  1  0  0  0  0
  4  6  1  0  0  0  0
  5  4  2  0  0  0  0
  6  7  1  0  0  0  0
  7  8  1  0  0  0  0
  8  9  1  0  0  0  0
  9 14  2  0  0  0  0
  9 10  1  0  0  0  0
 10 11  2  0  0  0  0
 11 12  1  0  0  0  0
 13 12  2  0  0  0  0
 14 13  1  0  0  0  0
 15 16  1  0  0  0  0
 16 17  1  0  0  0  0
 17 19  1  0  0  0  0
 17 18  2  0  0  0  0
 19 20  1  0  0  0  0
 21 20  1  0  0  0  0
 21 22  1  0  0  0  0
 22 23  1  0  0  0  0
 23 24  2  0  0  0  0
 25 24  1  0  0  0  0
 26 25  2  0  0  0  0
 27 26  1  0  0  0  0
 27 22  2  0  0  0  0
 29 28  1  0  0  0  0
 30 29  2  0  0  0  0
 31 29  1  0  0  0  0
 32 31  1  0  0  0  0
 33 32  1  0  0  0  0
 34 35  1  0  0  0  0
 34 33  1  0  0  0  0
 36 35  2  0  0  0  0
 37 36  1  0  0  0  0
 38 37  2  0  0  0  0
 38 39  1  0  0  0  0
 39 34  2  0  0  0  0
M  END
>  <MODEL>
1

>  <REMARK>
 VINA RESULT:    -6.773      0.000      0.000
 INTER + INTRA:         -18.953
 INTER:                 -14.691
 INTRA:                  -4.262
 UNBOUND:                -4.262
  20 active torsions:
  status: ('A' for Active; 'I' for Inactive)
    1  A    between atoms: C_5  and  C_7 
    2  A    between atoms: C_7  and  C_8 
    3  A    between atoms: C_8  and  C_9 
    4  A    between atoms: C_9  and  C_10 
    5  A    between atoms: C_10  and  O_12 
    6  A    between atoms: O_12  and  C_13 
    7  A    between atoms: C_13  and  C_14 
    8  A    between atoms: C_14  and  C_15 
    9  A    between atoms: C_14  and  O_28 
   10  A    between atoms: C_15  and  O_16 
   11  A    between atoms: O_16  and  C_17 
   12  A    between atoms: C_17  and  C_19 
   13  A    between atoms: C_19  and  C_20 
   14  A    between atoms: C_20  and  C_21 
   15  A    between atoms: C_21  and  C_22 
   16  A    between atoms: O_28  and  C_29 
   17  A    between atoms: C_29  and  C_31 
   18  A    between atoms: C_31  and  C_32 
   19  A    between atoms: C_32  and  C_33 
   20  A    between atoms: C_33  and  C_34 

>  <TORSDO>
F 20

mara_best1_out.pdbqt
 OpenBabel01222521213D

 39 41  0  0  1  0  0  0  0  0999 V2000
   46.9080    4.3810   13.7210 C   0  0  1  0  0  3  0  0  0  0  0  0
   45.8200    3.9000   12.7560 C   0  0  0  0  0  2  0  0  0  0  0  0
   44.6570    4.7260   12.9080 O   0  0  0  0  0  0  0  0  0  0  0  0
   44.1200    5.2170   11.7620 C   0  0  0  0  0  0  0  0  0  0  0  0
   43.1120    5.9050   11.6950 O   0  0  0  0  0  0  0  0  0  0  0  0
   44.9400    4.7890   10.5700 C   0  0  0  0  0  2  0  0  0  0  0  0
   44.1020    4.0990    9.4930 C   0  0  0  0  0  2  0  0  0  0  0  0
   44.4870    2.6370    9.2340 C   0  0  0  0  0  2  0  0  0  0  0  0
   45.5650    2.4740    8.1930 C   0  0  0  0  0  0  0  0  0  0  0  0
   45.8010    3.4860    7.2510 C   0  0  0  0  0  3  0  0  0  0  0  0
   46.8040    3.3400    6.2930 C   0  0  0  0  0  3  0  0  0  0  0  0
   47.5810    2.1840    6.2650 C   0  0  0  0  0  3  0  0  0  0  0  0
   47.3570    1.1730    7.1980 C   0  0  0  0  0  3  0  0  0  0  0  0
   46.3530    1.3160    8.1580 C   0  0  0  0  0  3  0  0  0  0  0  0
   47.0860    5.9060   13.5980 C   0  0  0  0  0  2  0  0  0  0  0  0
   48.3950    6.3290   14.0200 O   0  0  0  0  0  0  0  0  0  0  0  0
   48.4650    7.6190   14.4600 C   0  0  0  0  0  0  0  0  0  0  0  0
   47.8610    8.5570   13.9590 O   0  0  0  0  0  0  0  0  0  0  0  0
   49.3920    7.6980   15.6500 C   0  0  0  0  0  2  0  0  0  0  0  0
   49.0530    8.8390   16.6130 C   0  0  0  0  0  2  0  0  0  0  0  0
   48.2870    8.4210   17.8760 C   0  0  0  0  0  2  0  0  0  0  0  0
   47.6710    9.5720   18.6310 C   0  0  0  0  0  0  0  0  0  0  0  0
   47.0680    9.3680   19.8790 C   0  0  0  0  0  3  0  0  0  0  0  0
   46.4930   10.4340   20.5720 C   0  0  0  0  0  3  0  0  0  0  0  0
   46.5160   11.7160   20.0230 C   0  0  0  0  0  3  0  0  0  0  0  0
   47.1160   11.9310   18.7820 C   0  0  0  0  0  3  0  0  0  0  0  0
   47.6910   10.8650   18.0890 C   0  0  0  0  0  3  0  0  0  0  0  0
   46.4710    4.0540   15.0610 O   0  0  0  0  0  0  0  0  0  0  0  0
   47.4070    3.5310   15.8980 C   0  0  0  0  0  0  0  0  0  0  0  0
   48.2970    2.7570   15.5730 O   0  0  0  0  0  0  0  0  0  0  0  0
   47.1670    3.9780   17.3200 C   0  0  0  0  0  2  0  0  0  0  0  0
   48.1720    5.0320   17.7780 C   0  0  0  0  0  2  0  0  0  0  0  0
   48.4550    4.9130   19.2760 C   0  0  0  0  0  2  0  0  0  0  0  0
   49.9280    4.7420   19.5470 C   0  0  0  0  0  0  0  0  0  0  0  0
   50.7800    4.2450   18.5510 C   0  0  0  0  0  3  0  0  0  0  0  0
   52.1400    4.0650   18.8080 C   0  0  0  0  0  3  0  0  0  0  0  0
   52.6610    4.3780   20.0630 C   0  0  0  0  0  3  0  0  0  0  0  0
   51.8210    4.8670   21.0620 C   0  0  0  0  0  3  0  0  0  0  0  0
   50.4600    5.0470   20.8070 C   0  0  0  0  0  3  0  0  0  0  0  0
  1  2  1  6  0  0  0
  1 28  1  0  0  0  0
  2  3  1  0  0  0  0
  4  3  1  0  0  0  0
  5  4  2  0  0  0  0
  6  4  1  0  0  0  0
  7  6  1  0  0  0  0
  8  7  1  0  0  0  0
  9  8  1  0  0  0  0
 10  9  2  0  0  0  0
 11 10  1  0  0  0  0
 12 11  2  0  0  0  0
 12 13  1  0  0  0  0
 13 14  2  0  0  0  0
 14  9  1  0  0  0  0
 15  1  1  0  0  0  0
 15 16  1  0  0  0  0
 16 17  1  0  0  0  0
 17 19  1  0  0  0  0
 18 17  2  0  0  0  0
 19 20  1  0  0  0  0
 20 21  1  0  0  0  0
 21 22  1  0  0  0  0
 22 23  1  0  0  0  0
 23 24  2  0  0  0  0
 25 24  1  0  0  0  0
 26 25  2  0  0  0  0
 27 22  2  0  0  0  0
 27 26  1  0  0  0  0
 28 29  1  0  0  0  0
 29 31  1  0  0  0  0
 30 29  2  0  0  0  0
 31 32  1  0  0  0  0
 32 33  1  0  0  0  0
 33 34  1  0  0  0  0
 34 39  1  0  0  0  0
 35 36  1  0  0  0  0
 35 34  2  0  0  0  0
 36 37  2  0  0  0  0
 37 38  1  0  0  0  0
 39 38  2  0  0  0  0
M  END
>  <MODEL>
2

>  <REMARK>
 VINA RESULT:    -6.615      1.734      8.948
 INTER + INTRA:         -18.612
 INTER:                 -16.227
 INTRA:                  -2.385
 UNBOUND:                -4.262
  20 active torsions:
  status: ('A' for Active; 'I' for Inactive)
    1  A    between atoms: C_5  and  C_7 
    2  A    between atoms: C_7  and  C_8 
    3  A    between atoms: C_8  and  C_9 
    4  A    between atoms: C_9  and  C_10 
    5  A    between atoms: C_10  and  O_12 
    6  A    between atoms: O_12  and  C_13 
    7  A    between atoms: C_13  and  C_14 
    8  A    between atoms: C_14  and  C_15 
    9  A    between atoms: C_14  and  O_28 
   10  A    between atoms: C_15  and  O_16 
   11  A    between atoms: O_16  and  C_17 
   12  A    between atoms: C_17  and  C_19 
   13  A    between atoms: C_19  and  C_20 
   14  A    between atoms: C_20  and  C_21 
   15  A    between atoms: C_21  and  C_22 
   16  A    between atoms: O_28  and  C_29 
   17  A    between atoms: C_29  and  C_31 
   18  A    between atoms: C_31  and  C_32 
   19  A    between atoms: C_32  and  C_33 
   20  A    between atoms: C_33  and  C_34 

>  <TORSDO>
F 20

mara_best1_out.pdbqt
 OpenBabel01222521213D

 39 41  0  0  1  0  0  0  0  0999 V2000
   46.3090    5.7580   12.8740 C   0  0  1  0  0  3  0  0  0  0  0  0
   46.9990    4.5090   13.4340 C   0  0  0  0  0  2  0  0  0  0  0  0
   46.4650    4.2200   14.7340 O   0  0  0  0  0  0  0  0  0  0  0  0
   47.3360    3.6910   15.6310 C   0  0  0  0  0  0  0  0  0  0  0  0
   47.9220    2.6250   15.4980 O   0  0  0  0  0  0  0  0  0  0  0  0
   47.4790    4.5990   16.8260 C   0  0  0  0  0  2  0  0  0  0  0  0
   48.1140    3.8980   18.0290 C   0  0  0  0  0  2  0  0  0  0  0  0
   49.0290    4.7950   18.8720 C   0  0  0  0  0  2  0  0  0  0  0  0
   50.3970    4.9930   18.2710 C   0  0  0  0  0  0  0  0  0  0  0  0
   51.3260    3.9430   18.2580 C   0  0  0  0  0  3  0  0  0  0  0  0
   52.5890    4.1220   17.6940 C   0  0  0  0  0  3  0  0  0  0  0  0
   52.9360    5.3500   17.1360 C   0  0  0  0  0  3  0  0  0  0  0  0
   52.0200    6.4000   17.1390 C   0  0  0  0  0  3  0  0  0  0  0  0
   50.7550    6.2230   17.7040 C   0  0  0  0  0  3  0  0  0  0  0  0
   44.7980    5.7030   13.1660 C   0  0  0  0  0  2  0  0  0  0  0  0
   44.0170    6.1320   12.0380 O   0  0  0  0  0  0  0  0  0  0  0  0
   42.9870    5.3000   11.7050 C   0  0  0  0  0  0  0  0  0  0  0  0
   41.8080    5.6270   11.6940 O   0  0  0  0  0  0  0  0  0  0  0  0
   43.5300    3.9360   11.3520 C   0  0  0  0  0  2  0  0  0  0  0  0
   44.2940    3.9070   10.0260 C   0  0  0  0  0  2  0  0  0  0  0  0
   44.4490    2.5160    9.3940 C   0  0  0  0  0  2  0  0  0  0  0  0
   45.5040    2.4450    8.3180 C   0  0  0  0  0  0  0  0  0  0  0  0
   46.2750    1.2870    8.1490 C   0  0  0  0  0  3  0  0  0  0  0  0
   47.2540    1.2270    7.1570 C   0  0  0  0  0  3  0  0  0  0  0  0
   47.4730    2.3240    6.3240 C   0  0  0  0  0  3  0  0  0  0  0  0
   46.7100    3.4810    6.4830 C   0  0  0  0  0  3  0  0  0  0  0  0
   45.7300    3.5420    7.4740 C   0  0  0  0  0  3  0  0  0  0  0  0
   46.8870    6.9040   13.5410 O   0  0  0  0  0  0  0  0  0  0  0  0
   47.8420    7.5910   12.8580 C   0  0  0  0  0  0  0  0  0  0  0  0
   48.2230    7.3390   11.7230 O   0  0  0  0  0  0  0  0  0  0  0  0
   48.4360    8.6830   13.7140 C   0  0  0  0  0  2  0  0  0  0  0  0
   48.2380    8.4300   15.2060 C   0  0  0  0  0  2  0  0  0  0  0  0
   48.6880    9.6310   16.0380 C   0  0  0  0  0  2  0  0  0  0  0  0
   48.0850    9.6030   17.4190 C   0  0  0  0  0  0  0  0  0  0  0  0
   47.7140   10.7960   18.0550 C   0  0  0  0  0  3  0  0  0  0  0  0
   47.1750   10.7720   19.3430 C   0  0  0  0  0  3  0  0  0  0  0  0
   47.0050    9.5580   20.0060 C   0  0  0  0  0  3  0  0  0  0  0  0
   47.3760    8.3680   19.3840 C   0  0  0  0  0  3  0  0  0  0  0  0
   47.9150    8.3890   18.0970 C   0  0  0  0  0  3  0  0  0  0  0  0
  1 15  1  1  0  0  0
  1  2  1  0  0  0  0
  1 28  1  0  0  0  0
  2  3  1  0  0  0  0
  3  4  1  0  0  0  0
  4  6  1  0  0  0  0
  5  4  2  0  0  0  0
  6  7  1  0  0  0  0
  7  8  1  0  0  0  0
  9  8  1  0  0  0  0
 10  9  1  0  0  0  0
 11 10  2  0  0  0  0
 12 13  2  0  0  0  0
 12 11  1  0  0  0  0
 13 14  1  0  0  0  0
 14  9  2  0  0  0  0
 16 15  1  0  0  0  0
 17 16  1  0  0  0  0
 18 17  2  0  0  0  0
 19 17  1  0  0  0  0
 20 19  1  0  0  0  0
 21 20  1  0  0  0  0
 22 21  1  0  0  0  0
 23 22  1  0  0  0  0
 24 23  2  0  0  0  0
 25 26  2  0  0  0  0
 25 24  1  0  0  0  0
 26 27  1  0  0  0  0
 27 22  2  0  0  0  0
 29 28  1  0  0  0  0
 29 31  1  0  0  0  0
 30 29  2  0  0  0  0
 31 32  1  0  0  0  0
 32 33  1  0  0  0  0
 33 34  1  0  0  0  0
 34 35  2  0  0  0  0
 34 39  1  0  0  0  0
 35 36  1  0  0  0  0
 36 37  2  0  0  0  0
 38 37  1  0  0  0  0
 39 38  2  0  0  0  0
M  END
>  <MODEL>
3

>  <REMARK>
 VINA RESULT:    -6.512      1.512      8.940
 INTER + INTRA:         -18.387
 INTER:                 -15.487
 INTRA:                  -2.900
 UNBOUND:                -4.262
  20 active torsions:
  status: ('A' for Active; 'I' for Inactive)
    1  A    between atoms: C_5  and  C_7 
    2  A    between atoms: C_7  and  C_8 
    3  A    between atoms: C_8  and  C_9 
    4  A    between atoms: C_9  and  C_10 
    5  A    between atoms: C_10  and  O_12 
    6  A    between atoms: O_12  and  C_13 
    7  A    between atoms: C_13  and  C_14 
    8  A    between atoms: C_14  and  C_15 
    9  A    between atoms: C_14  and  O_28 
   10  A    between atoms: C_15  and  O_16 
   11  A    between atoms: O_16  and  C_17 
   12  A    between atoms: C_17  and  C_19 
   13  A    between atoms: C_19  and  C_20 
   14  A    between atoms: C_20  and  C_21 
   15  A    between atoms: C_21  and  C_22 
   16  A    between atoms: O_28  and  C_29 
   17  A    between atoms: C_29  and  C_31 
   18  A    between atoms: C_31  and  C_32 
   19  A    between atoms: C_32  and  C_33 
   20  A    between atoms: C_33  and  C_34 

>  <TORSDO>
F 20

mara_best1_out.pdbqt
 OpenBabel01222521213D

 39 41  0  0  1  0  0  0  0  0999 V2000
   45.9990    4.9860   13.2570 C   0  0  1  0  0  3  0  0  0  0  0  0
   45.4030    6.3850   13.0650 C   0  0  0  0  0  2  0  0  0  0  0  0
   46.3120    7.1810   12.2930 O   0  0  0  0  0  0  0  0  0  0  0  0
   45.9970    8.4960   12.1720 C   0  0  0  0  0  0  0  0  0  0  0  0
   45.0200    8.9350   11.5820 O   0  0  0  0  0  0  0  0  0  0  0  0
   47.0270    9.3510   12.8670 C   0  0  0  0  0  2  0  0  0  0  0  0
   48.1330    8.5250   13.5260 C   0  0  0  0  0  2  0  0  0  0  0  0
   49.1280    9.3470   14.3540 C   0  0  0  0  0  2  0  0  0  0  0  0
   49.7740    8.5650   15.4700 C   0  0  0  0  0  0  0  0  0  0  0  0
   49.5000    8.8800   16.8080 C   0  0  0  0  0  3  0  0  0  0  0  0
   50.0900    8.1510   17.8410 C   0  0  0  0  0  3  0  0  0  0  0  0
   50.9580    7.1020   17.5480 C   0  0  0  0  0  3  0  0  0  0  0  0
   51.2350    6.7780   16.2210 C   0  0  0  0  0  3  0  0  0  0  0  0
   50.6460    7.5060   15.1860 C   0  0  0  0  0  3  0  0  0  0  0  0
   46.9350    4.9740   14.4800 C   0  0  0  0  0  2  0  0  0  0  0  0
   46.9350    3.6980   15.1430 O   0  0  0  0  0  0  0  0  0  0  0  0
   47.0950    3.7560   16.4980 C   0  0  0  0  0  0  0  0  0  0  0  0
   46.3910    3.1660   17.3050 O   0  0  0  0  0  0  0  0  0  0  0  0
   48.2670    4.6490   16.8320 C   0  0  0  0  0  2  0  0  0  0  0  0
   49.2880    3.9930   17.7650 C   0  0  0  0  0  2  0  0  0  0  0  0
   49.8220    2.6330   17.2920 C   0  0  0  0  0  2  0  0  0  0  0  0
   51.2920    2.4240   17.5620 C   0  0  0  0  0  0  0  0  0  0  0  0
   51.8740    1.1590   17.4020 C   0  0  0  0  0  3  0  0  0  0  0  0
   53.2320    0.9680   17.6590 C   0  0  0  0  0  3  0  0  0  0  0  0
   54.0210    2.0380   18.0780 C   0  0  0  0  0  3  0  0  0  0  0  0
   53.4520    3.3010   18.2390 C   0  0  0  0  0  3  0  0  0  0  0  0
   52.0940    3.4940   17.9820 C   0  0  0  0  0  3  0  0  0  0  0  0
   44.8980    4.0760   13.4840 O   0  0  0  0  0  0  0  0  0  0  0  0
   44.1430    3.7480   12.4020 C   0  0  0  0  0  0  0  0  0  0  0  0
   42.9590    4.0210   12.2530 O   0  0  0  0  0  0  0  0  0  0  0  0
   44.9420    2.9310   11.4150 C   0  0  0  0  0  2  0  0  0  0  0  0
   44.1380    2.5700   10.1690 C   0  0  0  0  0  2  0  0  0  0  0  0
   44.5080    3.4690    8.9900 C   0  0  0  0  0  2  0  0  0  0  0  0
   45.6000    2.8560    8.1500 C   0  0  0  0  0  0  0  0  0  0  0  0
   45.9650    1.5150    8.3300 C   0  0  0  0  0  3  0  0  0  0  0  0
   46.9900    0.9530    7.5680 C   0  0  0  0  0  3  0  0  0  0  0  0
   47.6620    1.7260    6.6220 C   0  0  0  0  0  3  0  0  0  0  0  0
   47.3100    3.0620    6.4400 C   0  0  0  0  0  3  0  0  0  0  0  0
   46.2850    3.6270    7.2010 C   0  0  0  0  0  3  0  0  0  0  0  0
  1  2  1  1  0  0  0
  1 28  1  0  0  0  0
  1 15  1  0  0  0  0
  3  2  1  0  0  0  0
  4  3  1  0  0  0  0
  4  6  1  0  0  0  0
  5  4  2  0  0  0  0
  6  7  1  0  0  0  0
  7  8  1  0  0  0  0
  8  9  1  0  0  0  0
  9 10  1  0  0  0  0
 10 11  2  0  0  0  0
 12 11  1  0  0  0  0
 13 12  2  0  0  0  0
 14  9  2  0  0  0  0
 14 13  1  0  0  0  0
 15 16  1  0  0  0  0
 16 17  1  0  0  0  0
 17 19  1  0  0  0  0
 17 18  2  0  0  0  0
 19 20  1  0  0  0  0
 21 22  1  0  0  0  0
 21 20  1  0  0  0  0
 22 27  1  0  0  0  0
 23 22  2  0  0  0  0
 23 24  1  0  0  0  0
 24 25  2  0  0  0  0
 25 26  1  0  0  0  0
 27 26  2  0  0  0  0
 29 28  1  0  0  0  0
 30 29  2  0  0  0  0
 31 29  1  0  0  0  0
 32 31  1  0  0  0  0
 33 32  1  0  0  0  0
 34 35  1  0  0  0  0
 34 33  1  0  0  0  0
 36 35  2  0  0  0  0
 37 36  1  0  0  0  0
 38 37  2  0  0  0  0
 38 39  1  0  0  0  0
 39 34  2  0  0  0  0
M  END
>  <MODEL>
4

>  <REMARK>
 VINA RESULT:    -6.470      1.468      2.262
 INTER + INTRA:         -18.297
 INTER:                 -15.532
 INTRA:                  -2.765
 UNBOUND:                -4.262
  20 active torsions:
  status: ('A' for Active; 'I' for Inactive)
    1  A    between atoms: C_5  and  C_7 
    2  A    between atoms: C_7  and  C_8 
    3  A    between atoms: C_8  and  C_9 
    4  A    between atoms: C_9  and  C_10 
    5  A    between atoms: C_10  and  O_12 
    6  A    between atoms: O_12  and  C_13 
    7  A    between atoms: C_13  and  C_14 
    8  A    between atoms: C_14  and  C_15 
    9  A    between atoms: C_14  and  O_28 
   10  A    between atoms: C_15  and  O_16 
   11  A    between atoms: O_16  and  C_17 
   12  A    between atoms: C_17  and  C_19 
   13  A    between atoms: C_19  and  C_20 
   14  A    between atoms: C_20  and  C_21 
   15  A    between atoms: C_21  and  C_22 
   16  A    between atoms: O_28  and  C_29 
   17  A    between atoms: C_29  and  C_31 
   18  A    between atoms: C_31  and  C_32 
   19  A    between atoms: C_32  and  C_33 
   20  A    between atoms: C_33  and  C_34 

>  <TORSDO>
F 20

mara_best1_out.pdbqt
 OpenBabel01222521213D

 39 41  0  0  1  0  0  0  0  0999 V2000
   45.4520    5.9130   12.8430 C   0  0  1  0  0  3  0  0  0  0  0  0
   46.2270    4.6600   13.2620 C   0  0  0  0  0  2  0  0  0  0  0  0
   46.1410    4.5080   14.6860 O   0  0  0  0  0  0  0  0  0  0  0  0
   47.0980    3.7370   15.2620 C   0  0  0  0  0  0  0  0  0  0  0  0
   47.8020    2.9300   14.6720 O   0  0  0  0  0  0  0  0  0  0  0  0
   47.1730    4.0090   16.7440 C   0  0  0  0  0  2  0  0  0  0  0  0
   48.3000    3.2340   17.4310 C   0  0  0  0  0  2  0  0  0  0  0  0
   49.5910    4.0380   17.6270 C   0  0  0  0  0  2  0  0  0  0  0  0
   50.8250    3.1790   17.7280 C   0  0  0  0  0  0  0  0  0  0  0  0
   52.0170    3.7070   18.2440 C   0  0  0  0  0  3  0  0  0  0  0  0
   53.1580    2.9100   18.3470 C   0  0  0  0  0  3  0  0  0  0  0  0
   53.1190    1.5790   17.9360 C   0  0  0  0  0  3  0  0  0  0  0  0
   51.9390    1.0430   17.4250 C   0  0  0  0  0  3  0  0  0  0  0  0
   50.7960    1.8390   17.3210 C   0  0  0  0  0  3  0  0  0  0  0  0
   46.4120    6.9470   12.2270 C   0  0  0  0  0  2  0  0  0  0  0  0
   46.5330    8.1220   13.0460 O   0  0  0  0  0  0  0  0  0  0  0  0
   47.7870    8.6590   13.0980 C   0  0  0  0  0  0  0  0  0  0  0  0
   48.3770    9.1350   12.1380 O   0  0  0  0  0  0  0  0  0  0  0  0
   48.3180    8.5740   14.5090 C   0  0  0  0  0  2  0  0  0  0  0  0
   49.6050    7.7560   14.6290 C   0  0  0  0  0  2  0  0  0  0  0  0
   49.8390    7.1050   16.0000 C   0  0  0  0  0  2  0  0  0  0  0  0
   49.2950    7.9020   17.1590 C   0  0  0  0  0  0  0  0  0  0  0  0
   49.8670    9.1310   17.5130 C   0  0  0  0  0  3  0  0  0  0  0  0
   49.3660    9.8630   18.5900 C   0  0  0  0  0  3  0  0  0  0  0  0
   48.2860    9.3730   19.3240 C   0  0  0  0  0  3  0  0  0  0  0  0
   47.7080    8.1510   18.9800 C   0  0  0  0  0  3  0  0  0  0  0  0
   48.2080    7.4190   17.9030 C   0  0  0  0  0  3  0  0  0  0  0  0
   44.4810    5.5060   11.8510 O   0  0  0  0  0  0  0  0  0  0  0  0
   43.5340    4.6150   12.2510 C   0  0  0  0  0  0  0  0  0  0  0  0
   42.8990    4.6750   13.2950 O   0  0  0  0  0  0  0  0  0  0  0  0
   43.4080    3.4820   11.2610 C   0  0  0  0  0  2  0  0  0  0  0  0
   44.4820    3.5310   10.1770 C   0  0  0  0  0  2  0  0  0  0  0  0
   44.5230    2.2280    9.3780 C   0  0  0  0  0  2  0  0  0  0  0  0
   45.5630    2.2810    8.2880 C   0  0  0  0  0  0  0  0  0  0  0  0
   46.3960    1.1800    8.0480 C   0  0  0  0  0  3  0  0  0  0  0  0
   47.3730    1.2370    7.0530 C   0  0  0  0  0  3  0  0  0  0  0  0
   47.5280    2.3940    6.2920 C   0  0  0  0  0  3  0  0  0  0  0  0
   46.7080    3.4960    6.5270 C   0  0  0  0  0  3  0  0  0  0  0  0
   45.7310    3.4420    7.5220 C   0  0  0  0  0  3  0  0  0  0  0  0
  1 15  1  6  0  0  0
  1  2  1  0  0  0  0
  2  3  1  0  0  0  0
  3  4  1  0  0  0  0
  4  6  1  0  0  0  0
  5  4  2  0  0  0  0
  6  7  1  0  0  0  0
  7  8  1  0  0  0  0
  8  9  1  0  0  0  0
  9 10  1  0  0  0  0
 10 11  2  0  0  0  0
 12 11  1  0  0  0  0
 13 12  2  0  0  0  0
 14 13  1  0  0  0  0
 14  9  2  0  0  0  0
 15 16  1  0  0  0  0
 16 17  1  0  0  0  0
 17 19  1  0  0  0  0
 18 17  2  0  0  0  0
 19 20  1  0  0  0  0
 20 21  1  0  0  0  0
 21 22  1  0  0  0  0
 22 23  2  0  0  0  0
 22 27  1  0  0  0  0
 23 24  1  0  0  0  0
 24 25  2  0  0  0  0
 26 25  1  0  0  0  0
 27 26  2  0  0  0  0
 28 29  1  0  0  0  0
 28  1  1  0  0  0  0
 29 30  2  0  0  0  0
 31 29  1  0  0  0  0
 32 31  1  0  0  0  0
 33 32  1  0  0  0  0
 34 33  1  0  0  0  0
 35 34  1  0  0  0  0
 36 35  2  0  0  0  0
 37 38  2  0  0  0  0
 37 36  1  0  0  0  0
 38 39  1  0  0  0  0
 39 34  2  0  0  0  0
M  END
>  <MODEL>
5

>  <REMARK>
 VINA RESULT:    -6.458      1.417      4.464
 INTER + INTRA:         -18.270
 INTER:                 -15.831
 INTRA:                  -2.439
 UNBOUND:                -4.262
  20 active torsions:
  status: ('A' for Active; 'I' for Inactive)
    1  A    between atoms: C_5  and  C_7 
    2  A    between atoms: C_7  and  C_8 
    3  A    between atoms: C_8  and  C_9 
    4  A    between atoms: C_9  and  C_10 
    5  A    between atoms: C_10  and  O_12 
    6  A    between atoms: O_12  and  C_13 
    7  A    between atoms: C_13  and  C_14 
    8  A    between atoms: C_14  and  C_15 
    9  A    between atoms: C_14  and  O_28 
   10  A    between atoms: C_15  and  O_16 
   11  A    between atoms: O_16  and  C_17 
   12  A    between atoms: C_17  and  C_19 
   13  A    between atoms: C_19  and  C_20 
   14  A    between atoms: C_20  and  C_21 
   15  A    between atoms: C_21  and  C_22 
   16  A    between atoms: O_28  and  C_29 
   17  A    between atoms: C_29  and  C_31 
   18  A    between atoms: C_31  and  C_32 
   19  A    between atoms: C_32  and  C_33 
   20  A    between atoms: C_33  and  C_34 

>  <TORSDO>
F 20

> <Uni-Dock RESULT> 
ENERGY=  -13.506  LOWER_BOUND=    0.000  UPPER_BOUND=    0.000
INTER + INTRA:         -13.506
INTER:                 -13.506
INTRA:                   0.000
UNBOUND:                 0.000

$$$$
