cp23_chai1_out.pdb
 OpenBabel01232512533D

 44 45  0  0  0  0  0  0  0  0999 V2000
   44.7230    3.8260    9.0580 C   0  0  0  0  0  0  0  0  0  0  0  0
   45.3550    4.3050    7.9560 N   0  0  0  0  0  0  0  0  0  0  0  0
   47.2060    0.1450    7.0500 O   0  0  0  0  0  0  0  0  0  0  0  0
   44.8930    2.4930    9.4800 C   0  0  0  0  0  0  0  0  0  0  0  0
   48.0710    1.9490    6.0310 N   0  0  0  0  0  0  0  0  0  0  0  0
   45.7050    1.6960    8.7590 C   0  0  0  0  0  0  0  0  0  0  0  0
   43.9310    4.7010    9.6980 N   0  0  0  0  0  0  0  0  0  0  0  0
   46.3490    2.2110    7.6240 C   0  0  0  0  0  0  0  0  0  0  0  0
   47.7590    8.6610   13.5330 N   0  0  0  0  0  0  0  0  0  0  0  0
   46.1380    3.5200    7.2660 C   0  0  0  0  0  0  0  0  0  0  0  0
   47.2410    1.3360    6.8770 C   0  0  0  0  0  0  0  0  0  0  0  0
   43.2730    4.4780   10.9580 C   0  0  0  0  0  0  0  0  0  0  0  0
   43.6360    5.5220   12.0430 C   0  0  0  0  0  0  0  0  0  0  0  0
   45.0900    5.3960   12.4910 C   0  0  0  0  0  0  0  0  0  0  0  0
   45.5350    4.2300   13.1160 C   0  0  0  0  0  0  0  0  0  0  0  0
   46.8700    4.1610   13.5380 C   0  0  0  0  0  0  0  0  0  0  0  0
   47.7330    5.2460   13.3470 C   0  0  0  0  0  0  0  0  0  0  0  0
   47.2400    6.4130   12.7290 C   0  0  0  0  0  0  0  0  0  0  0  0
   45.9240    6.4830   12.3080 C   0  0  0  0  0  0  0  0  0  0  0  0
   48.1190    7.6290   12.5520 C   0  0  0  0  0  0  0  0  0  0  0  0
   42.6480    5.3020   13.2100 C   0  0  0  0  0  0  0  0  0  0  0  0
   43.3610    6.9100   11.4050 C   0  0  0  0  0  0  0  0  0  0  0  0
   44.4087    2.1367   10.3187 H   0  0  0  0  0  0  0  0  0  0  0  0
   48.7031    1.4207    5.4920 H   0  0  0  0  0  0  0  0  0  0  0  0
   48.0513    2.9296    5.9458 H   0  0  0  0  0  0  0  0  0  0  0  0
   45.8523    0.7138    9.0394 H   0  0  0  0  0  0  0  0  0  0  0  0
   43.7875    5.5740    9.2662 H   0  0  0  0  0  0  0  0  0  0  0  0
   48.3582    9.4763   13.4042 H   0  0  0  0  0  0  0  0  0  0  0  0
   47.8844    8.2924   14.4758 H   0  0  0  0  0  0  0  0  0  0  0  0
   46.6113    3.8936    6.4285 H   0  0  0  0  0  0  0  0  0  0  0  0
   43.5491    3.5083   11.3164 H   0  0  0  0  0  0  0  0  0  0  0  0
   42.2212    4.5635   10.7811 H   0  0  0  0  0  0  0  0  0  0  0  0
   44.8942    3.4348   13.2644 H   0  0  0  0  0  0  0  0  0  0  0  0
   47.2192    3.3032   13.9932 H   0  0  0  0  0  0  0  0  0  0  0  0
   48.7167    5.1924   13.6544 H   0  0  0  0  0  0  0  0  0  0  0  0
   45.5672    7.3415   11.8601 H   0  0  0  0  0  0  0  0  0  0  0  0
   49.1422    7.3492   12.6924 H   0  0  0  0  0  0  0  0  0  0  0  0
   47.9798    8.0204   11.5659 H   0  0  0  0  0  0  0  0  0  0  0  0
   42.8302    4.3468   13.6563 H   0  0  0  0  0  0  0  0  0  0  0  0
   41.6448    5.3370   12.8394 H   0  0  0  0  0  0  0  0  0  0  0  0
   42.7846    6.0699   13.9425 H   0  0  0  0  0  0  0  0  0  0  0  0
   44.0413    7.0713   10.5950 H   0  0  0  0  0  0  0  0  0  0  0  0
   43.4960    7.6742   12.1417 H   0  0  0  0  0  0  0  0  0  0  0  0
   42.3562    6.9413   11.0385 H   0  0  0  0  0  0  0  0  0  0  0  0
  1  4  1  0  0  0  0
  1  7  1  0  0  0  0
  1  2  2  0  0  0  0
  2 10  1  0  0  0  0
  3 11  2  0  0  0  0
  4  6  2  0  0  0  0
  4 23  1  0  0  0  0
  5 11  1  0  0  0  0
  5 24  1  0  0  0  0
  5 25  1  0  0  0  0
  6  8  1  0  0  0  0
  6 26  1  0  0  0  0
  7 12  1  0  0  0  0
  7 27  1  0  0  0  0
  8 10  2  0  0  0  0
  8 11  1  0  0  0  0
  9 20  1  0  0  0  0
  9 28  1  0  0  0  0
  9 29  1  0  0  0  0
 10 30  1  0  0  0  0
 12 13  1  0  0  0  0
 12 31  1  0  0  0  0
 12 32  1  0  0  0  0
 13 14  1  0  0  0  0
 13 21  1  0  0  0  0
 13 22  1  0  0  0  0
 14 15  2  0  0  0  0
 14 19  1  0  0  0  0
 15 16  1  0  0  0  0
 15 33  1  0  0  0  0
 16 17  2  0  0  0  0
 16 34  1  0  0  0  0
 17 18  1  0  0  0  0
 17 35  1  0  0  0  0
 18 19  2  0  0  0  0
 18 20  1  0  0  0  0
 19 36  1  0  0  0  0
 20 37  1  0  0  0  0
 20 38  1  0  0  0  0
 21 39  1  0  0  0  0
 21 40  1  0  0  0  0
 21 41  1  0  0  0  0
 22 42  1  0  0  0  0
 22 43  1  0  0  0  0
 22 44  1  0  0  0  0
M  END
$$$$
