best
  PyMOL2.5          3D                             0

 44 46  0  0  0  0  0  0  0  0999 V2000
   47.3201    4.1550   17.1628 C   0  0  0  0  0  0  0  0  0  0  0  0
   47.6376    4.8638   18.2603 N   0  0  0  0  0  0  0  0  0  0  0  0
   46.7544    3.0809   17.2487 O   0  0  0  0  0  0  0  0  0  0  0  0
   47.2268    4.3158   14.8053 C   0  0  0  0  0  0  0  0  0  0  0  0
   47.4414    4.8863   16.0289 N   0  0  0  0  0  0  0  0  0  0  0  0
   47.3583    3.1358   14.5233 O   0  0  0  0  0  0  0  0  0  0  0  0
   46.8240    5.2422   13.7288 C   0  0  0  0  0  0  0  0  0  0  0  0
   43.8921    5.0923   10.0161 N   0  0  0  0  0  0  0  0  0  0  0  0
   46.6683   -0.2317    7.9120 O   0  0  0  0  0  0  0  0  0  0  0  0
   47.1492    6.6059   13.7667 C   0  0  0  0  0  0  0  0  0  0  0  0
   47.4193    1.1475    6.2723 N   0  0  0  0  0  0  0  0  0  0  0  0
   48.2343    2.7222    4.7251 O   0  0  0  0  0  0  0  0  0  0  0  0
   46.4998    7.4883   12.9018 C   0  0  0  0  0  0  0  0  0  0  0  0
   42.8151    5.4158   13.5069 O   0  0  0  0  0  0  0  0  0  0  0  0
   45.5230    7.0154   12.0209 C   0  0  0  0  0  0  0  0  0  0  0  0
   45.1849    5.6502   11.9912 C   0  0  0  0  0  0  0  0  0  0  0  0
   45.8784    4.7573   12.8167 C   0  0  0  0  0  0  0  0  0  0  0  0
   43.9066    5.2138   11.3944 C   0  0  0  0  0  0  0  0  0  0  0  0
   44.5813    4.0335    9.4017 C   0  0  0  0  0  0  0  0  0  0  0  0
   44.4012    2.7016    9.7958 C   0  0  0  0  0  0  0  0  0  0  0  0
   45.1068    1.6755    9.1718 C   0  0  0  0  0  0  0  0  0  0  0  0
   45.9996    1.9793    8.1397 C   0  0  0  0  0  0  0  0  0  0  0  0
   46.7793    0.8990    7.4676 C   0  0  0  0  0  0  0  0  0  0  0  0
   47.6204    2.4425    5.8896 C   0  0  0  0  0  0  0  0  0  0  0  0
   47.1957    3.6474    6.6797 C   0  0  0  0  0  0  0  0  0  0  0  0
   46.1687    3.3021    7.7070 C   0  0  0  0  0  0  0  0  0  0  0  0
   45.4678    4.3199    8.3640 C   0  0  0  0  0  0  0  0  0  0  0  0
   42.8050    5.4358   12.1385 C   0  0  0  0  0  0  0  0  0  0  0  0
   41.6310    5.7364   11.5491 F   0  0  0  0  0  0  0  0  0  0  0  0
   47.5507    4.3761   19.1463 H   0  0  0  0  0  0  0  0  0  0  0  0
   48.3155    5.6092   18.2087 H   0  0  0  0  0  0  0  0  0  0  0  0
   47.3592    5.8870   16.1347 H   0  0  0  0  0  0  0  0  0  0  0  0
   47.8764    6.9974   14.4696 H   0  0  0  0  0  0  0  0  0  0  0  0
   46.7143    8.5515   12.9502 H   0  0  0  0  0  0  0  0  0  0  0  0
   44.9789    7.7281   11.4092 H   0  0  0  0  0  0  0  0  0  0  0  0
   45.5989    3.7068   12.8229 H   0  0  0  0  0  0  0  0  0  0  0  0
   44.1956    5.9680    9.5880 H   0  0  0  0  0  0  0  0  0  0  0  0
   43.7126    2.4655   10.6004 H   0  0  0  0  0  0  0  0  0  0  0  0
   44.9489    0.6571    9.4951 H   0  0  0  0  0  0  0  0  0  0  0  0
   48.4874    3.6616    4.6668 H   0  0  0  0  0  0  0  0  0  0  0  0
   46.7835    4.3884    5.9910 H   0  0  0  0  0  0  0  0  0  0  0  0
   48.0763    4.0615    7.1715 H   0  0  0  0  0  0  0  0  0  0  0  0
   45.6519    5.3545    8.1122 H   0  0  0  0  0  0  0  0  0  0  0  0
   42.1216    6.0492   13.7702 H   0  0  0  0  0  0  0  0  0  0  0  0
  1  3  1  0  0  0  0
  1  5  1  0  0  0  0
  1  2  1  0  0  0  0
  2 30  1  0  0  0  0
  2 31  1  0  0  0  0
  4  6  1  0  0  0  0
  4  7  1  0  0  0  0
  4  5  1  0  0  0  0
  5 32  1  0  0  0  0
  7 10  1  0  0  0  0
  7 17  1  0  0  0  0
  8 19  1  0  0  0  0
  8 37  1  0  0  0  0
 10 13  1  0  0  0  0
 10 33  1  0  0  0  0
 11 24  1  0  0  0  0
 12 40  1  0  0  0  0
 13 15  1  0  0  0  0
 13 34  1  0  0  0  0
 14 44  1  0  0  0  0
 15 16  1  0  0  0  0
 15 35  1  0  0  0  0
 16 17  1  0  0  0  0
 16 18  1  0  0  0  0
 17 36  1  0  0  0  0
  8 18  1  0  0  0  0
 18 28  1  0  0  0  0
 19 20  1  0  0  0  0
 19 27  1  0  0  0  0
 20 21  1  0  0  0  0
 20 38  1  0  0  0  0
 21 22  1  0  0  0  0
 21 39  1  0  0  0  0
 22 23  1  0  0  0  0
 22 26  1  0  0  0  0
  9 23  1  0  0  0  0
 11 23  1  0  0  0  0
 12 24  1  0  0  0  0
 24 25  1  0  0  0  0
 25 26  1  0  0  0  0
 25 41  1  0  0  0  0
 25 42  1  0  0  0  0
 26 27  1  0  0  0  0
 27 43  1  0  0  0  0
 14 28  1  0  0  0  0
 28 29  1  0  0  0  0
M  END
> <Uni-Dock RESULT> 
ENERGY=  -10.922  LOWER_BOUND=    0.000  UPPER_BOUND=    0.000
INTER + INTRA:         -10.922
INTER:                 -10.922
INTRA:                   0.000
UNBOUND:                 0.000

$$$$
